38

C              0.8425474778   0.0078368236   0.0071828593
C              2.3703578816  -0.0221459940  -0.0175824626
C              2.9327865168  -1.1226265640  -0.9190701288
C              4.4617848910  -1.1596471182  -0.9496141082
C              5.0230091384  -2.2606468424  -1.8515118582
C              6.5521395326  -2.2975601392  -1.8819840313
C              7.1133894154  -3.3985528723  -2.7838716879
C              8.6425198596  -3.4354601388  -2.8143488824
C              9.2037467752  -4.5364637836  -3.7162401555
C             10.7327452891  -4.5734600919  -3.7468074329
C             11.2951784430  -5.6739586836  -4.6482702032
C             12.8229890005  -5.7039041352  -4.6730726393
H              0.4737525779   0.7978004128   0.6542973933
H              0.4378286297  -0.9327663617   0.3703090880
H              0.4376680391   0.1786199645  -0.9864497228
H              2.7446460426  -0.1595692670   0.9947624078
H              2.7444860979   0.9433639341  -0.3516927871
H              2.5554851328  -0.9840974400  -1.9310653672
H              2.5556539361  -2.0875771014  -0.5839367462
H              4.8380514757  -1.2976984163   0.0627376449
H              4.8378834993  -0.1942571121  -1.2843584884
H              4.6465631489  -2.1226375540  -2.8637794172
H              4.6467434459  -3.2259645452  -1.5168179616
H              6.9285405084  -2.4355182984  -0.8696840364
H              6.9283606915  -1.3322029923  -2.2166416849
H              6.7369816328  -3.2605989214  -3.7961696079
H              6.7371756167  -4.3639115549  -2.4492096808
H              9.0189715034  -3.5734526008  -1.8020818846
H              9.0187783435  -2.4701443732  -3.1490586212
H              8.8274565980  -4.3984405551  -4.7285861256
H              8.8276742617  -5.5018552990  -3.3814681418
H             11.1100688526  -4.7119423590  -2.7348150070
H             11.1098526044  -3.6085143314  -4.0819858309
H             10.9208546205  -5.5365928523  -5.6606083209
H             10.9210896543  -6.6394659404  -4.3141037706
H             13.2276677892  -4.7633086182  -5.0362673001
H             13.1917877386  -6.4938840459  -5.3201649949
H             13.2279048522  -5.8746160969  -3.6794440367