50

C              0.8176411118  -0.0624540514   0.0248439536
C              2.3453890683  -0.0247487044   0.0094751187
C              2.9060543640   1.2897450311  -0.5363116818
C              4.4349614526   1.3361538807  -0.5553026464
C              4.9942100787   2.6512693579  -1.1014246429
C              6.5232655011   2.6976876042  -1.1204355529
C              7.0823664181   4.0128426670  -1.6666371608
C              8.6114272937   4.0593797531  -1.6856700614
C              9.1704843943   5.3745476384  -2.2318902728
C             10.6995458863   5.4210825611  -2.2508851743
C             11.2586759901   6.7362275239  -2.7970804221
C             12.7877331919   6.7826271755  -2.8160221880
C             13.3470305803   8.0977036922  -3.3621869451
C             14.8759403433   8.1440671223  -3.3811362001
C             15.4366626363   9.4584892988  -3.9270351058
C             16.9644129526   9.4961397706  -3.9423697336
H              0.4503106699  -1.0060648459   0.4166152699
H              0.4124381815   0.0601799833  -0.9757230799
H              0.4120762911   0.7328772528   0.6439647266
H              2.7205036534  -0.8522157687  -0.5891685027
H              2.7201473639  -0.1845522917   1.0183474835
H              2.5279411474   2.1165594601   0.0629344658
H              2.5283099318   1.4486453440  -1.5451552421
H              4.8120588667   0.5088628817  -1.1543595892
H              4.8117009639   1.1768892882   0.4537596371
H              4.6169322614   3.4784374730  -0.5023650707
H              4.6173007073   2.8104277787  -2.1104091064
H              6.9004944741   1.8704437968  -1.7194393241
H              6.9001333034   2.5385267710  -0.1114235243
H              6.7050490877   4.8400517252  -1.0676445092
H              6.7054525076   4.1719616237  -2.6756370722
H              8.9887349394   3.2321535862  -2.2846466456
H              8.9883290890   3.9002647389  -0.6766637987
H              8.7931619686   6.2017754685  -1.6329249183
H              8.7936038720   5.5336565367  -3.2409058860
H             11.0768760745   4.5938673948  -2.8498608402
H             11.0764297586   5.2619676745  -1.2418737631
H             10.8814265505   7.5634818690  -2.1981032548
H             10.8818561759   6.8953791118  -3.8061118228
H             13.1650240780   5.9554258375  -3.4150270821
H             13.1645949113   6.6235077505  -1.8070138172
H             12.9699378629   8.9250333354  -2.7631794092
H             12.9703259519   8.2569313929  -4.3712677461
H             15.2540416368   7.3171864690  -3.9802981927
H             15.2536547381   7.9852454688  -2.3722689761
H             15.0615657749  10.2860266327  -3.3284760939
H             15.0619307765   9.6182119631  -4.9359295238
H             17.3695913868   9.3735929928  -2.9417829426
H             17.3317865199  10.4396923888  -4.3342408142
H             17.3699602963   8.7007294219  -4.5614021083