26

C              0.8939366589  -0.0240384706  -0.0224923503
C              2.4218494357  -0.0513641034  -0.0480413091
C              2.9857213560  -1.0886123587  -1.0208488215
C              4.5147882092  -1.1224309676  -1.0524921726
C              5.0774664470  -2.1601534082  -2.0257465172
C              6.6065332964  -2.1939678924  -2.0573944831
C              7.1704049696  -3.2312144429  -3.0302039595
C              8.6983177385  -3.2585317043  -3.0557623384
H              0.5244698711   0.7206278458   0.6759138114
H              0.4896101606  -0.9870969171   0.2765253160
H              0.4896749910   0.2127247995  -1.0027412745
H              2.7954860984  -0.2560681789   0.9531036061
H              2.7955504753   0.9346017837  -0.3164036528
H              2.6091211070  -0.8828756997  -2.0215997167
H              2.6090591082  -2.0741194192  -0.7514801490
H              4.8904511626  -1.3277689762  -0.0514069142
H              4.8905119932  -0.1365643187  -1.3214843811
H              4.7018001798  -1.9548172818  -3.0268308079
H              4.7017459149  -3.1460208727  -1.7567523492
H              6.9831379676  -2.3997029071  -1.0566448876
H              6.9831912687  -1.2084597164  -2.3267649565
H              6.7967618868  -3.0265129500  -4.0313469999
H              6.7967101243  -4.2171819213  -2.7618388142
H              9.1026380660  -2.2954713547  -3.3547814962
H              9.0677842688  -4.0031984452  -3.7541681880
H              9.1025858189  -3.4952937889  -2.0755155550