47

C              0.8388636958   0.0444964093   0.0440193208
C              2.3665905236   0.0143206720   0.0148401855
C              2.9260969085  -1.0092070157  -0.9748428492
C              4.4549696021  -1.0460845558  -1.0105262825
C              5.0131547136  -2.0700842703  -2.0006705727
C              6.5421761285  -2.1069064823  -2.0363624391
C              7.1002171680  -3.1309485433  -3.0265578925
C              8.6292405757  -3.1678832253  -3.0623945130
C              9.1871124109  -4.1919595181  -4.0526508938
C             10.7161291824  -4.2290355884  -4.0886001281
C             11.2738348464  -5.2531259452  -5.0789230883
C             12.8028379017  -5.2903298369  -5.1149540682
C             13.3605358183  -6.3142736344  -6.1052054401
C             14.8893568119  -6.3525390992  -6.1422350386
C             15.4378719651  -7.3779224463  -7.1339164097
H              0.4724203101   0.7792284472   0.7544446181
H              0.4330663869  -0.9221327907   0.3291601586
H              0.4330765608   0.2969993830  -0.9316508984
H              2.7419513999  -0.2066264742   1.0118749115
H              2.7419603630   1.0033645599  -0.2394768022
H              2.5477495129  -0.7874785540  -1.9715313213
H              2.5477552880  -1.9978830209  -0.7197496905
H              4.8323101920  -1.2674934043  -0.0134870909
H              4.8322997166  -0.0570458148  -1.2653091556
H              4.6356466085  -1.8486286554  -2.9976050812
H              4.6356965600  -3.0590263079  -1.7458223703
H              6.9196473621  -2.3283359758  -1.0393962167
H              6.9195917253  -1.1179291818  -2.2911796441
H              6.7226667580  -2.9095073401  -4.0234886152
H              6.7227449356  -4.1198960289  -2.7717188010
H              9.0068105000  -3.3893558269  -2.0654749401
H              9.0067299268  -2.1789416563  -3.3172419613
H              8.8095279566  -3.9704768330  -5.0495595850
H              8.8095879649  -5.1808866313  -3.7978099088
H             11.0937680943  -4.4505854069  -3.0917244588
H             11.0937077723  -3.2401320366  -4.3434623615
H             10.8962676066  -5.0315832160  -6.0758158872
H             10.8962970965  -6.2420421941  -4.8240919734
H             13.1805574906  -5.5119956993  -4.1181158101
H             13.1805261645  -4.3014565127  -5.3698487888
H             12.9836124755  -6.0931897487  -7.1025764182
H             12.9836226432  -7.3036962909  -5.8508931845
H             15.2680302631  -6.5752588490  -5.1468488527
H             15.2680182620  -5.3651459962  -6.3980824769
H             15.1047380643  -8.3815207994  -6.8845951560
H             16.5235931973  -7.3815372970  -7.1374307801
H             15.1047317145  -7.1622610379  -8.1452822302