17
 
C              0.9378918814  -0.0204605130   0.0500606380
C              2.4657241080  -0.0366518822   0.0894020372
C              3.0249734075  -0.5764914189   1.4068955843
C              4.5537694566  -0.5964650941   1.4554643325
C              5.1032949275  -1.1372202711   2.7751941370
H              0.5721240409   0.3671232814  -0.8958538174
H              0.5320024394   0.6028222227   0.8419852718
H              0.5319262802  -1.0201865010   0.1769945002
H              2.8412201466   0.9712093152  -0.0751538287
H              2.8411443004  -0.6393301473  -0.7350363177
H              2.6474061001  -1.5846774631   1.5708573839
H              2.6474834486   0.0268364561   2.2311385018
H              4.9324300291   0.4105474551   1.2929774396
H              4.9323523930  -1.1999923982   0.6330959103
H              4.7706011129  -0.5335600943   3.6150045080
H              6.1889954122  -1.1387812950   2.7788746991
H              4.7705216584  -2.1565690934   2.9500145550